data_image0
_chemical_formula_structural       MgOC2HO3C4HMgOC2HO3C4HMgOC2HO3C4HO2C2MgO3C4HMgO2C2MgO3C4HMgO2C2MgO3C4HMgO2C2Mg2O3C4HO2C2Mg2O3C4HO2C2Mg2O3C4HMgOC2HO3C4HMgOC2HO3C4HMgOC2HO3C4HMgOC2HO3C4HMgOC2HO3C4HMgOC2HO3C4HO2C2MgO3C4HMgO2C2MgO3C4HMgO2C2MgO3C4HMgO2C2Mg2O3C4HO2C2Mg2O3C4HO2C2Mg2O3C4HMgOC2HO3C4HMgOC2HO3C4HMgOC2HO3C4HCO2
_chemical_formula_sum              "Mg36 O110 C145 H36"
_cell_length_a       26.1701
_cell_length_b       26.1701
_cell_length_c       13.896
_cell_angle_alpha    90.0
_cell_angle_beta     90.0
_cell_angle_gamma    59.99999999999999

_space_group_name_H-M_alt    "P 1"
_space_group_IT_number       1

loop_
  _space_group_symop_operation_xyz
  'x, y, z'

loop_
  _atom_site_type_symbol
  _atom_site_label
  _atom_site_symmetry_multiplicity
  _atom_site_fract_x
  _atom_site_fract_y
  _atom_site_fract_z
  _atom_site_occupancy
  Mg  Mg1       1.0  0.31531  0.63704  0.266805  1.0000
  O   O1        1.0  0.06021999999999998  0.25363  0.16594499999999998  1.0000
  C   C1        1.0  0.11056999999999997  0.21214000000000002  0.123315  1.0000
  C   C2        1.0  0.15194  0.16486  0.17913  1.0000
  H   H1        1.0  0.14175999999999997  0.16351000000000002  0.25464  1.0000
  O   O2        1.0  0.03687000000000001  0.29977  0.487395  1.0000
  O   O3        1.0  0.10456  0.26056  0.36998999999999993  1.0000
  O   O4        1.0  0.39524999999999993  0.58559  0.33291  1.0000
  C   C3        1.0  0.08801999999999996  0.25967000000000007  0.456  1.0000
  C   C4        1.0  0.12482  0.21317  0.023865  1.0000
  C   C5        1.0  0.44604000000000005  0.5447  0.290475  1.0000
  C   C6        1.0  0.48780999999999997  0.49789000000000005  0.346425  1.0000
  H   H2        1.0  0.47777  0.4963400000000001  0.42193499999999995  1.0000
  Mg  Mg2       1.0  0.04749999999999999  0.31394  0.26706  1.0000
  O   O5        1.0  0.68555  0.06082  0.165645  1.0000
  C   C7        1.0  0.67499  0.11193000000000002  0.122985  1.0000
  C   C8        1.0  0.68056  0.15346  0.17862  1.0000
  H   H3        1.0  0.69293  0.14303  0.253785  1.0000
  O   O6        1.0  0.6604  0.03780000000000001  0.48783  1.0000
  O   O7        1.0  0.63483  0.10466000000000002  0.369735  1.0000
  O   O8        1.0  0.019169999999999982  0.39384000000000013  0.33288  1.0000
  C   C9        1.0  0.65116  0.08830000000000002  0.45612  1.0000
  C   C10       1.0  0.65856  0.12698  0.024  1.0000
  C   C11       1.0  0.009250000000000001  0.44488  0.29082  1.0000
  C   C12       1.0  0.015169999999999968  0.48652000000000006  0.345765  1.0000
  H   H4        1.0  0.027830000000000008  0.47634  0.42087  1.0000
  Mg  Mg3       1.0  0.6371999999999999  0.04819  0.266655  1.0000
  O   O9        1.0  0.25327999999999995  0.68545  0.16581  1.0000
  C   C13       1.0  0.21207  0.67581  0.12319499999999999  1.0000
  C   C14       1.0  0.16471999999999992  0.6814900000000002  0.178515  1.0000
  H   H5        1.0  0.16282  0.69341  0.25392  1.0000
  O   O10       1.0  0.3018799999999999  0.6604700000000001  0.487905  1.0000
  O   O11       1.0  0.26327  0.63186  0.370155  1.0000
  O   O12       1.0  0.58421  0.02201  0.33243  1.0000
  C   C15       1.0  0.26167999999999997  0.6497000000000002  0.45606  1.0000
  C   C16       1.0  0.21283999999999995  0.66032  0.02382  1.0000
  C   C17       1.0  0.54395  0.0112  0.289365  1.0000
  C   C18       1.0  0.49727999999999994  0.01584  0.345045  1.0000
  H   H6        1.0  0.49554  0.027530000000000002  0.42051  1.0000
  O   O13       1.0  0.29567  0.0315  0.17856  1.0000
  O   O14       1.0  0.22847000000000003  0.07009  0.29625  1.0000
  C   C19       1.0  0.24448  0.07154  0.21009  1.0000
  C   C20       1.0  0.20549  0.1193  0.14256  1.0000
  Mg  Mg4       1.0  0.017940000000000032  0.69633  0.39858  1.0000
  O   O15       1.0  0.6316199999999998  0.36508000000000007  0.3453  1.0000
  O   O16       1.0  0.5645599999999998  0.40358  0.463005  1.0000
  O   O17       1.0  0.2702799999999999  0.0791  0.00033  1.0000
  C   C21       1.0  0.58056  0.40508  0.376995  1.0000
  C   C22       1.0  0.5415700000000001  0.45276  0.30978  1.0000
  C   C23       1.0  0.21974  0.12032000000000001  0.04302  1.0000
  C   C24       1.0  0.18055999999999997  0.16723000000000002  0.4869  1.0000
  H   H7        1.0  0.19043  0.16874  0.411315  1.0000
  Mg  Mg5       1.0  0.35083  0.02826  0.06504  1.0000
  O   O18       1.0  0.67031  0.29699000000000003  0.17901  1.0000
  O   O19       1.0  0.69839  0.22896  0.295935  1.0000
  C   C25       1.0  0.6808099999999998  0.24589  0.210075  1.0000
  C   C26       1.0  0.6714199999999999  0.20753000000000002  0.142395  1.0000
  Mg  Mg6       1.0  0.28622  0.01798  0.400005  1.0000
  O   O20       1.0  0.0030599999999999933  0.63142  0.345255  1.0000
  O   O21       1.0  0.03479000000000002  0.56204  0.459585  1.0000
  O   O22       1.0  0.6445799999999999  0.27337000000000006  0.00051  1.0000
  C   C27       1.0  0.015339999999999916  0.5794400000000001  0.37494  1.0000
  C   C28       1.0  0.005859999999999992  0.54058  0.30855  1.0000
  C   C29       1.0  0.65506  0.22247  0.04341  1.0000
  C   C30       1.0  0.65218  0.18024  0.48759  1.0000
  H   H8        1.0  0.6405399999999999  0.19042  0.41214  1.0000
  Mg  Mg7       1.0  0.6187599999999999  0.35228000000000004  0.06645  1.0000
  O   O23       1.0  0.031780000000000024  0.6699  0.17865  1.0000
  O   O24       1.0  0.06962999999999993  0.7015800000000001  0.29301  1.0000
  C   C31       1.0  0.07143999999999999  0.6822300000000001  0.20832  1.0000
  C   C32       1.0  0.11947  0.67296  0.141525  1.0000
  Mg  Mg8       1.0  0.6952999999999999  0.28595000000000004  0.399675  1.0000
  O   O25       1.0  0.36532  0.00346  0.34581  1.0000
  O   O26       1.0  0.40558  0.03167  0.46254  1.0000
  O   O27       1.0  0.07931999999999999  0.64763  0.000255  1.0000
  C   C33       1.0  0.40559  0.014620000000000003  0.37653  1.0000
  C   C34       1.0  0.45254999999999995  0.00655  0.30849  1.0000
  C   C35       1.0  0.12050000000000001  0.65729  0.04245  1.0000
  C   C36       1.0  0.1682299999999999  0.6508900000000001  0.48639  1.0000
  H   H9        1.0  0.16994999999999993  0.639  0.4109999999999999  1.0000
  Mg  Mg9       1.0  0.027109999999999964  0.6195  0.06615  1.0000
  O   O28       1.0  0.70126  0.96852  0.32128499999999993  1.0000
  O   O29       1.0  0.76852  0.9298800000000003  0.203745  1.0000
  C   C37       1.0  0.75244  0.9284900000000003  0.28977  1.0000
  C   C38       1.0  0.7914499999999999  0.8809600000000001  0.357135  1.0000
  Mg  Mg10      1.0  0.6460599999999999  0.9729900000000002  0.43346999999999997  1.0000
  Mg  Mg11      1.0  0.9800299999999998  0.30568  0.10011  1.0000
  O   O30       1.0  0.37034999999999996  0.63286  0.154365  1.0000
  O   O31       1.0  0.4380200000000001  0.59359  0.037095  1.0000
  O   O32       1.0  0.7264599999999999  0.92091  0.49926  1.0000
  C   C39       1.0  0.4216  0.5927500000000001  0.12318  1.0000
  C   C40       1.0  0.46042000000000005  0.54554  0.191025  1.0000
  C   C41       1.0  0.7771599999999999  0.8800500000000001  0.456585  1.0000
  C   C42       1.0  0.81881  0.83208  0.012045  1.0000
  H   H10       1.0  0.8085499999999999  0.8303600000000002  0.08739  1.0000
  O   O33       1.0  0.33007  0.7017300000000001  0.321165  1.0000
  O   O34       1.0  0.2987199999999999  0.7709300000000001  0.206025  1.0000
  C   C43       1.0  0.3176699999999999  0.7536300000000001  0.29106  1.0000
  C   C44       1.0  0.32666  0.7924200000000001  0.35823  1.0000
  Mg  Mg12      1.0  0.38124  0.64698  0.43437  1.0000
  Mg  Mg13      1.0  0.7123899999999999  0.9819800000000001  0.09971999999999999  1.0000
  O   O35       1.0  0.99655  0.3687400000000001  0.154755  1.0000
  O   O36       1.0  0.9650799999999999  0.43800000000000006  0.04012500000000001  1.0000
  O   O37       1.0  0.35236  0.72695  0.49962  1.0000
  C   C45       1.0  0.98403  0.42068  0.12501  1.0000
  C   C46       1.0  0.9928399999999997  0.4596100000000001  0.191985  1.0000
  C   C47       1.0  0.34249  0.77778  0.457305  1.0000
  C   C48       1.0  0.35037  0.81735  0.012764999999999999  1.0000
  H   H11       1.0  0.3625200000000001  0.80719  0.08808  1.0000
  O   O38       1.0  0.96851  0.32719000000000004  0.32109  1.0000
  O   O39       1.0  0.9271599999999999  0.30157000000000006  0.20307  1.0000
  C   C49       1.0  0.92735  0.31778000000000006  0.28953  1.0000
  C   C50       1.0  0.8799599999999999  0.32685000000000003  0.357465  1.0000
  Mg  Mg14      1.0  0.97215  0.37923  0.4331249999999999  1.0000
  Mg  Mg15      1.0  0.30573999999999996  0.7127000000000001  0.100665  1.0000
  O   O40       1.0  0.6328799999999998  0.9967800000000001  0.15426  1.0000
  O   O41       1.0  0.59373  0.96832  0.036765  1.0000
  O   O42       1.0  0.9202999999999999  0.35229000000000005  0.49916999999999995  1.0000
  C   C51       1.0  0.59263  0.9860600000000003  0.12267  1.0000
  C   C52       1.0  0.54501  0.99528  0.190155  1.0000
  C   C53       1.0  0.8792999999999997  0.34239  0.45669  1.0000
  C   C54       1.0  0.831  0.34875  0.012105  1.0000
  H   H12       1.0  0.82922  0.36061  0.08748  1.0000
  Mg  Mg16      1.0  0.6860700000000002  0.36115  0.232455  1.0000
  O   O43       1.0  0.93765  0.7481300000000001  0.333645  1.0000
  C   C55       1.0  0.8869899999999998  0.7890100000000001  0.37641  1.0000
  C   C56       1.0  0.8452000000000001  0.83583  0.320505  1.0000
  H   H13       1.0  0.85522  0.8373000000000002  0.244965  1.0000
  O   O44       1.0  0.9623099999999998  0.6984100000000001  0.011655  1.0000
  O   O45       1.0  0.8947899999999999  0.7371600000000003  0.128475  1.0000
  O   O46       1.0  0.6064299999999998  0.41281  0.167325  1.0000
  C   C57       1.0  0.9111900000000002  0.7386900000000001  0.04272  1.0000
  C   C58       1.0  0.8727199999999999  0.7881400000000002  0.475935  1.0000
  C   C59       1.0  0.5558599999999999  0.45370000000000005  0.21033  1.0000
  C   C60       1.0  0.5141599999999998  0.5004800000000001  0.154455  1.0000
  H   H14       1.0  0.5241700000000001  0.5019  0.078915  1.0000
  Mg  Mg17      1.0  0.9514999999999998  0.6859  0.23298  1.0000
  O   O47       1.0  0.31416999999999995  0.9384100000000002  0.334245  1.0000
  C   C61       1.0  0.3239099999999998  0.8876400000000001  0.37692  1.0000
  C   C62       1.0  0.31810999999999984  0.8461600000000002  0.32142  1.0000
  H   H15       1.0  0.3061299999999998  0.8563300000000001  0.246075  1.0000
  O   O48       1.0  0.33654000000000006  0.96257  0.011985  1.0000
  O   O49       1.0  0.36807  0.89486  0.128925  1.0000
  O   O50       1.0  0.9779900000000001  0.60643  0.16707  1.0000
  C   C63       1.0  0.34939  0.91087  0.04335  1.0000
  C   C64       1.0  0.3395699999999999  0.87303  0.476205  1.0000
  C   C65       1.0  0.9888999999999999  0.5553800000000001  0.20984999999999998  1.0000
  C   C66       1.0  0.98338  0.5135700000000001  0.15486  1.0000
  H   H16       1.0  0.97083  0.52371  0.07971  1.0000
  Mg  Mg18      1.0  0.36142999999999986  0.9525300000000002  0.232845  1.0000
  O   O51       1.0  0.7467399999999997  0.31398000000000004  0.33438  1.0000
  C   C67       1.0  0.78776  0.3238  0.376905  1.0000
  C   C68       1.0  0.8346999999999999  0.31836  0.321045  1.0000
  H   H17       1.0  0.83626  0.30664  0.245625  1.0000
  O   O52       1.0  0.69875  0.3366  0.012734999999999998  1.0000
  O   O53       1.0  0.7389599999999998  0.36503  0.129075  1.0000
  O   O54       1.0  0.41255999999999987  0.9810400000000002  0.166875  1.0000
  C   C69       1.0  0.7391499999999998  0.34768  0.04326  1.0000
  C   C70       1.0  0.78704  0.33942  0.47611499999999995  1.0000
  C   C71       1.0  0.45333  0.99121  0.209235  1.0000
  C   C72       1.0  0.50013  0.98623  0.153525  1.0000
  H   H18       1.0  0.50199  0.9743400000000001  0.07812  1.0000
  Mg  Mg19      1.0  0.31531  0.63704  0.7668050000000001  1.0000
  O   O55       1.0  0.06021999999999998  0.25363  0.665945  1.0000
  C   C73       1.0  0.11056999999999997  0.21214000000000002  0.6233150000000001  1.0000
  C   C74       1.0  0.15194  0.16486  0.6791300000000001  1.0000
  H   H19       1.0  0.14175999999999997  0.16351000000000002  0.75464  1.0000
  O   O56       1.0  0.03687000000000001  0.29977  0.987395  1.0000
  O   O57       1.0  0.10456  0.26056  0.8699899999999999  1.0000
  O   O58       1.0  0.39524999999999993  0.58559  0.83291  1.0000
  C   C75       1.0  0.08801999999999996  0.25967000000000007  0.9560000000000001  1.0000
  C   C76       1.0  0.12482  0.21317  0.523865  1.0000
  C   C77       1.0  0.44604000000000005  0.5447  0.7904749999999999  1.0000
  C   C78       1.0  0.48780999999999997  0.49789000000000005  0.8464249999999999  1.0000
  H   H20       1.0  0.47777  0.4963400000000001  0.921935  1.0000
  Mg  Mg20      1.0  0.04749999999999999  0.31394  0.76706  1.0000
  O   O59       1.0  0.68555  0.06082  0.665645  1.0000
  C   C79       1.0  0.67499  0.11193000000000002  0.622985  1.0000
  C   C80       1.0  0.68056  0.15346  0.67862  1.0000
  H   H21       1.0  0.69293  0.14303  0.7537849999999999  1.0000
  O   O60       1.0  0.6604  0.03780000000000001  0.98783  1.0000
  O   O61       1.0  0.63483  0.10466000000000002  0.869735  1.0000
  O   O62       1.0  0.019169999999999982  0.39384000000000013  0.8328800000000001  1.0000
  C   C81       1.0  0.65116  0.08830000000000002  0.95612  1.0000
  C   C82       1.0  0.65856  0.12698  0.5239999999999999  1.0000
  C   C83       1.0  0.009250000000000001  0.44488  0.79082  1.0000
  C   C84       1.0  0.015169999999999968  0.48652000000000006  0.8457649999999999  1.0000
  H   H22       1.0  0.027830000000000008  0.47634  0.92087  1.0000
  Mg  Mg21      1.0  0.6371999999999999  0.04819  0.766655  1.0000
  O   O63       1.0  0.25327999999999995  0.68545  0.66581  1.0000
  C   C85       1.0  0.21207  0.67581  0.623195  1.0000
  C   C86       1.0  0.16471999999999992  0.6814900000000002  0.678515  1.0000
  H   H23       1.0  0.16282  0.69341  0.75392  1.0000
  O   O64       1.0  0.3018799999999999  0.6604700000000001  0.9879049999999999  1.0000
  O   O65       1.0  0.26327  0.63186  0.8701550000000001  1.0000
  O   O66       1.0  0.58421  0.02201  0.8324299999999999  1.0000
  C   C87       1.0  0.26167999999999997  0.6497000000000002  0.9560599999999999  1.0000
  C   C88       1.0  0.21283999999999995  0.66032  0.52382  1.0000
  C   C89       1.0  0.54395  0.0112  0.7893649999999999  1.0000
  C   C90       1.0  0.49727999999999994  0.01584  0.845045  1.0000
  H   H24       1.0  0.49554  0.027530000000000002  0.9205099999999999  1.0000
  O   O67       1.0  0.29567  0.0315  0.6785599999999999  1.0000
  O   O68       1.0  0.22847000000000003  0.07009  0.79625  1.0000
  C   C91       1.0  0.24448  0.07154  0.71009  1.0000
  C   C92       1.0  0.20549  0.1193  0.64256  1.0000
  Mg  Mg22      1.0  0.017940000000000032  0.69633  0.8985799999999999  1.0000
  O   O69       1.0  0.6316199999999998  0.36508000000000007  0.8452999999999999  1.0000
  O   O70       1.0  0.5645599999999998  0.40358  0.9630050000000001  1.0000
  O   O71       1.0  0.2702799999999999  0.0791  0.5003299999999999  1.0000
  C   C93       1.0  0.58056  0.40508  0.876995  1.0000
  C   C94       1.0  0.5415700000000001  0.45276  0.80978  1.0000
  C   C95       1.0  0.21974  0.12032000000000001  0.54302  1.0000
  C   C96       1.0  0.18055999999999997  0.16723000000000002  0.9868999999999999  1.0000
  H   H25       1.0  0.19043  0.16874  0.9113149999999999  1.0000
  Mg  Mg23      1.0  0.35083  0.02826  0.56504  1.0000
  O   O72       1.0  0.67031  0.29699000000000003  0.67901  1.0000
  O   O73       1.0  0.69839  0.22896  0.795935  1.0000
  C   C97       1.0  0.6808099999999998  0.24589  0.710075  1.0000
  C   C98       1.0  0.6714199999999999  0.20753000000000002  0.642395  1.0000
  Mg  Mg24      1.0  0.28622  0.01798  0.9000049999999999  1.0000
  O   O74       1.0  0.0030599999999999933  0.63142  0.845255  1.0000
  O   O75       1.0  0.03479000000000002  0.56204  0.959585  1.0000
  O   O76       1.0  0.6445799999999999  0.27337000000000006  0.50051  1.0000
  C   C99       1.0  0.015339999999999916  0.5794400000000001  0.8749399999999999  1.0000
  C   C100      1.0  0.005859999999999992  0.54058  0.80855  1.0000
  C   C101      1.0  0.65506  0.22247  0.54341  1.0000
  C   C102      1.0  0.65218  0.18024  0.98759  1.0000
  H   H26       1.0  0.6405399999999999  0.19042  0.9121400000000001  1.0000
  Mg  Mg25      1.0  0.6187599999999999  0.35228000000000004  0.56645  1.0000
  O   O77       1.0  0.031780000000000024  0.6699  0.67865  1.0000
  O   O78       1.0  0.06962999999999993  0.7015800000000001  0.79301  1.0000
  C   C103      1.0  0.07143999999999999  0.6822300000000001  0.70832  1.0000
  C   C104      1.0  0.11947  0.67296  0.641525  1.0000
  Mg  Mg26      1.0  0.6952999999999999  0.28595000000000004  0.8996749999999999  1.0000
  O   O79       1.0  0.36532  0.00346  0.84581  1.0000
  O   O80       1.0  0.40558  0.03167  0.96254  1.0000
  O   O81       1.0  0.07931999999999999  0.64763  0.500255  1.0000
  C   C105      1.0  0.40559  0.014620000000000003  0.87653  1.0000
  C   C106      1.0  0.45254999999999995  0.00655  0.80849  1.0000
  C   C107      1.0  0.12050000000000001  0.65729  0.54245  1.0000
  C   C108      1.0  0.1682299999999999  0.6508900000000001  0.98639  1.0000
  H   H27       1.0  0.16994999999999993  0.639  0.9109999999999999  1.0000
  Mg  Mg27      1.0  0.027109999999999964  0.6195  0.56615  1.0000
  O   O82       1.0  0.70126  0.96852  0.8212849999999999  1.0000
  O   O83       1.0  0.76852  0.9298800000000003  0.703745  1.0000
  C   C109      1.0  0.75244  0.9284900000000003  0.7897700000000001  1.0000
  C   C110      1.0  0.7914499999999999  0.8809600000000001  0.857135  1.0000
  Mg  Mg28      1.0  0.6460599999999999  0.9729900000000002  0.93347  1.0000
  Mg  Mg29      1.0  0.9800299999999998  0.30568  0.60011  1.0000
  O   O84       1.0  0.37034999999999996  0.63286  0.654365  1.0000
  O   O85       1.0  0.4380200000000001  0.59359  0.537095  1.0000
  O   O86       1.0  0.7264599999999999  0.92091  0.9992599999999999  1.0000
  C   C111      1.0  0.4216  0.5927500000000001  0.6231800000000001  1.0000
  C   C112      1.0  0.46042000000000005  0.54554  0.691025  1.0000
  C   C113      1.0  0.7771599999999999  0.8800500000000001  0.956585  1.0000
  C   C114      1.0  0.81881  0.83208  0.512045  1.0000
  H   H28       1.0  0.8085499999999999  0.8303600000000002  0.5873900000000001  1.0000
  O   O87       1.0  0.33007  0.7017300000000001  0.821165  1.0000
  O   O88       1.0  0.2987199999999999  0.7709300000000001  0.7060249999999999  1.0000
  C   C115      1.0  0.3176699999999999  0.7536300000000001  0.79106  1.0000
  C   C116      1.0  0.32666  0.7924200000000001  0.8582299999999999  1.0000
  Mg  Mg30      1.0  0.38124  0.64698  0.9343699999999999  1.0000
  Mg  Mg31      1.0  0.7123899999999999  0.9819800000000001  0.5997199999999999  1.0000
  O   O89       1.0  0.99655  0.3687400000000001  0.6547550000000001  1.0000
  O   O90       1.0  0.9650799999999999  0.43800000000000006  0.540125  1.0000
  O   O91       1.0  0.35236  0.72695  0.9996200000000001  1.0000
  C   C117      1.0  0.98403  0.42068  0.62501  1.0000
  C   C118      1.0  0.9928399999999997  0.4596100000000001  0.691985  1.0000
  C   C119      1.0  0.34249  0.77778  0.9573050000000001  1.0000
  C   C120      1.0  0.35037  0.81735  0.512765  1.0000
  H   H29       1.0  0.3625200000000001  0.80719  0.58808  1.0000
  O   O92       1.0  0.96851  0.32719000000000004  0.82109  1.0000
  O   O93       1.0  0.9271599999999999  0.30157000000000006  0.70307  1.0000
  C   C121      1.0  0.92735  0.31778000000000006  0.78953  1.0000
  C   C122      1.0  0.8799599999999999  0.32685000000000003  0.8574649999999999  1.0000
  Mg  Mg32      1.0  0.97215  0.37923  0.933125  1.0000
  Mg  Mg33      1.0  0.30573999999999996  0.7127000000000001  0.600665  1.0000
  O   O94       1.0  0.6328799999999998  0.9967800000000001  0.65426  1.0000
  O   O95       1.0  0.59373  0.96832  0.536765  1.0000
  O   O96       1.0  0.9202999999999999  0.35229000000000005  0.99917  1.0000
  C   C123      1.0  0.59263  0.9860600000000003  0.6226700000000001  1.0000
  C   C124      1.0  0.54501  0.99528  0.690155  1.0000
  C   C125      1.0  0.8792999999999997  0.34239  0.9566899999999999  1.0000
  C   C126      1.0  0.831  0.34875  0.512105  1.0000
  H   H30       1.0  0.82922  0.36061  0.5874799999999999  1.0000
  Mg  Mg34      1.0  0.6860700000000002  0.36115  0.732455  1.0000
  O   O97       1.0  0.93765  0.7481300000000001  0.833645  1.0000
  C   C127      1.0  0.8869899999999998  0.7890100000000001  0.87641  1.0000
  C   C128      1.0  0.8452000000000001  0.83583  0.820505  1.0000
  H   H31       1.0  0.85522  0.8373000000000002  0.744965  1.0000
  O   O98       1.0  0.9623099999999998  0.6984100000000001  0.511655  1.0000
  O   O99       1.0  0.8947899999999999  0.7371600000000003  0.6284749999999999  1.0000
  O   O100      1.0  0.6064299999999998  0.41281  0.6673250000000001  1.0000
  C   C129      1.0  0.9111900000000002  0.7386900000000001  0.54272  1.0000
  C   C130      1.0  0.8727199999999999  0.7881400000000002  0.9759349999999999  1.0000
  C   C131      1.0  0.5558599999999999  0.45370000000000005  0.71033  1.0000
  C   C132      1.0  0.5141599999999998  0.5004800000000001  0.654455  1.0000
  H   H32       1.0  0.5241700000000001  0.5019  0.578915  1.0000
  Mg  Mg35      1.0  0.9514999999999998  0.6859  0.7329800000000001  1.0000
  O   O101      1.0  0.31416999999999995  0.9384100000000002  0.8342449999999999  1.0000
  C   C133      1.0  0.3239099999999998  0.8876400000000001  0.8769199999999999  1.0000
  C   C134      1.0  0.31810999999999984  0.8461600000000002  0.8214199999999999  1.0000
  H   H33       1.0  0.3061299999999998  0.8563300000000001  0.746075  1.0000
  O   O102      1.0  0.33654000000000006  0.96257  0.511985  1.0000
  O   O103      1.0  0.36807  0.89486  0.6289250000000001  1.0000
  O   O104      1.0  0.9779900000000001  0.60643  0.6670699999999999  1.0000
  C   C135      1.0  0.34939  0.91087  0.54335  1.0000
  C   C136      1.0  0.3395699999999999  0.87303  0.976205  1.0000
  C   C137      1.0  0.9888999999999999  0.5553800000000001  0.7098499999999999  1.0000
  C   C138      1.0  0.98338  0.5135700000000001  0.65486  1.0000
  H   H34       1.0  0.97083  0.52371  0.5797100000000001  1.0000
  Mg  Mg36      1.0  0.36142999999999986  0.9525300000000002  0.7328450000000001  1.0000
  O   O105      1.0  0.7467399999999997  0.31398000000000004  0.8343799999999999  1.0000
  C   C139      1.0  0.78776  0.3238  0.876905  1.0000
  C   C140      1.0  0.8346999999999999  0.31836  0.821045  1.0000
  H   H35       1.0  0.83626  0.30664  0.7456250000000001  1.0000
  O   O106      1.0  0.69875  0.3366  0.512735  1.0000
  O   O107      1.0  0.7389599999999998  0.36503  0.629075  1.0000
  O   O108      1.0  0.41255999999999987  0.9810400000000002  0.666875  1.0000
  C   C141      1.0  0.7391499999999998  0.34768  0.54326  1.0000
  C   C142      1.0  0.78704  0.33942  0.976115  1.0000
  C   C143      1.0  0.45333  0.99121  0.7092350000000001  1.0000
  C   C144      1.0  0.50013  0.98623  0.6535249999999999  1.0000
  H   H36       1.0  0.50199  0.9743400000000001  0.57812  1.0000
  C   C145      1.0  0.27292662887941754  0.5346433042324608  0.20452003547419517  1.0000
  O   O109      1.0  0.3096443635574782  0.5458613428491371  0.22146769015614287  1.0000
  O   O110      1.0  0.23620889420135685  0.5234252656157845  0.18757238079224745  1.0000
