data_MgMOF-74_DDEC
_chemical_name_common                  'MgMOF-74_DDEC'
_cell_length_a                              6.870000000
_cell_length_b                             15.112181400
_cell_length_c                             15.112181400
_cell_angle_alpha                         117.746240480
_cell_angle_beta                           98.715798920
_cell_angle_gamma                          98.715798920

_symmetry_cell_setting          triclinic
_symmetry_space_group_name_Hall 'P 1'
_symmetry_space_group_name_H-M  'P 1'
_symmetry_Int_Tables_number     1

_symmetry_equiv_pos_as_xyz 'x,y,z'

loop_
   _atom_site_type_symbol
   _atom_site_label
   _atom_site_fract_x
   _atom_site_fract_y
   _atom_site_fract_z
   _atom_site_charge
   Mg    Mg1         0.5186500000      0.4093400000      0.7319800000    1.4148400
   Mg    Mg2         0.4814500000      0.5907400000      0.2681800000    1.4152260
   Mg    Mg3         0.7867500000      0.2681200000      0.6775000000    1.4150490
   Mg    Mg4         0.2133500000      0.7319200000      0.3227000000    1.4149810
   Mg    Mg5         0.1093700000      0.3226800000      0.5908000000    1.4152670
   Mg    Mg6         0.8907700000      0.6774800000      0.4094000000    1.4153640
   H     H1          0.1869650000      0.5308500000      0.5511000000    0.1423580
   H     H2          0.8131650000      0.4692500000      0.4491000000    0.1422210
   H     H3          0.6359650000      0.4490200000      0.9799300000    0.1428330
   H     H4          0.3641650000      0.5510200000      0.0203300000    0.1425470
   H     H5          0.6561950000      0.0203100000      0.4693300000    0.1427900
   H     H6          0.3439950000      0.9799100000      0.5309300000    0.1426060
   C     C1          0.7398300000      0.3850400000      0.5624800000    0.6837900
   C     C2          0.2604300000      0.6150400000      0.4376800000    0.6836320
   C     C3          0.1774300000      0.4376200000      0.8227000000    0.6838090
   C     C4          0.8228300000      0.5624200000      0.1775000000    0.6836940
   C     C5          0.3548500000      0.1774800000      0.6151000000    0.6839840
   C     C6          0.6454500000      0.8226800000      0.3851000000    0.6829560
   C     C7          0.6148300000      0.4491400000      0.5376800000   -0.1773490
   C     C8          0.3854300000      0.5509400000      0.4624800000   -0.1773120
   C     C9          0.0772300000      0.4624300000      0.9115900000   -0.1770960
   C     C10         0.9230300000      0.5376300000      0.0885900000   -0.1775100
   C     C11         0.1657400000      0.0885600000      0.5509900000   -0.1772920
   C     C12         0.8345400000      0.9115600000      0.4491900000   -0.1770670
   C     C13         0.4378500000      0.4679400000      0.5698800000    0.3282120
   C     C14         0.5622500000      0.5321400000      0.4302800000    0.3285260
   C     C15         0.8680500000      0.4302200000      0.8982000000    0.3283210
   C     C16         0.1320500000      0.5698200000      0.1020000000    0.3288670
   C     C17         0.9699700000      0.1019800000      0.5322000000    0.3285720
   C     C18         0.0301700000      0.8981800000      0.4680000000    0.3290870
   C     C19         0.3255300000      0.5227400000      0.5351800000   -0.2087990
   C     C20         0.6747300000      0.4773400000      0.4649800000   -0.2086970
   C     C21         0.7904300000      0.4649200000      0.9877000000   -0.2092150
   C     C22         0.2098300000      0.5351200000      0.0125000000   -0.2099140
   C     C23         0.8028500000      0.0124800000      0.4774000000   -0.2096940
   C     C24         0.1974500000      0.9876800000      0.5228000000   -0.2095000
   O     O1          0.6872510000      0.3548400000      0.6208800000   -0.7387460
   O     O2          0.3128510000      0.6452400000      0.3792800000   -0.7387570
   O     O3          0.0664510000      0.3792200000      0.7341000000   -0.7387300
   O     O4          0.9336510000      0.6208200000      0.2661000000   -0.7387400
   O     O5          0.3324710000      0.2660800000      0.6453000000   -0.7390080
   O     O6          0.6676710000      0.7340800000      0.3549000000   -0.7383650
   O     O7          0.9004500000      0.3768400000      0.5316800000   -0.6324900
   O     O8          0.0996500000      0.6232400000      0.4684800000   -0.6328050
   O     O9          0.3688500000      0.4684200000      0.8453000000   -0.6325900
   O     O10         0.6312500000      0.5316200000      0.1549000000   -0.6327200
   O     O11         0.5236700000      0.1548800000      0.6233000000   -0.6323300
   O     O12         0.4764700000      0.8452800000      0.3769000000   -0.6322220
   O     O13         0.3562530000      0.4334400000      0.6283800000   -0.8119520
   O     O14         0.6438530000      0.5666400000      0.3717800000   -0.8121590
   O     O15         0.7279530000      0.3717200000      0.8052000000   -0.8116690
   O     O16         0.2721530000      0.6283200000      0.1950000000   -0.8122470
   O     O17         0.9228730000      0.1949800000      0.5667000000   -0.8121360
   O     O18         0.0772730000      0.8051800000      0.4335000000   -0.8124180
